Version 4
SHEET 1 880 680
WIRE 0 96 -112 96
WIRE 128 96 0 96
WIRE 240 96 128 96
WIRE 416 96 320 96
WIRE 0 176 0 160
WIRE 0 176 -112 176
WIRE 80 176 0 176
WIRE 128 176 80 176
WIRE 416 176 128 176
WIRE 80 224 80 176
FLAG 80 224 0
SYMBOL current -112 176 R180
WINDOW 0 24 80 Left 2
WINDOW 3 24 0 Left 2
WINDOW 123 0 0 Left 0
WINDOW 39 0 0 Left 0
SYMATTR InstName I1
SYMATTR Value 0.178
SYMBOL diode -16 96 R0
SYMATTR InstName D1
SYMATTR Value Dcell
SYMBOL res 112 80 R0
SYMATTR InstName R1
SYMATTR Value 398.4280
SYMBOL res 336 80 R90
WINDOW 0 0 56 VBottom 2
WINDOW 3 32 56 VTop 2
SYMATTR InstName R2
SYMATTR Value 1.7795
SYMBOL voltage 416 80 R0
WINDOW 123 0 0 Left 0
WINDOW 39 0 0 Left 0
SYMATTR InstName V1
SYMATTR Value 4
TEXT -162 248 Left 2 !.dc I1 0 0.2 0.04 V1 0 5.04 0.5
TEXT -168 296 Left 2 !.model Dcell D IS=9.0837e-10
